/*--------------------------------*- C++ -*----------------------------------*\
| =========                 |                                                 |
| \\      /  F ield         | OpenFOAM: The Open Source CFD Toolbox           |
|  \\    /   O peration     | Version:  plus                                  |
|   \\  /    A nd           | Web:      www.OpenFOAM.com                      |
|    \\/     M anipulation  |                                                 |
\*---------------------------------------------------------------------------*/
FoamFile
{
    version     2.0;
    format      ascii;
    class       dictionary;
    location    "system";
    object      controlDict;
}
// * * * * * * * * * * * * * * * * * * * * * * * * * * * * * * * * * * * * * //

application     icoBoilingFoam;

startFrom       startTime;

startTime       0;

stopAt          endTime;

endTime         1;

deltaT         5e-6;

writeControl    adjustableRunTime;

writeInterval   0.001;

purgeWrite      1;

writeFormat     binary;

writePrecision  12;

writeCompression no;

timeFormat      general;

timePrecision   10;

runTimeModifiable yes;

adjustTimeStep  no;

maxCo           0.5;
maxAlphaCo      0.5;
maxDeltaT       1.0;//#calc "1e-3*$t0";;

