/*--------------------------------*- C++ -*----------------------------------*\
| =========                 |                                                 |
| \\      /  F ield         | OpenFOAM: The Open Source CFD Toolbox           |
|  \\    /   O peration     | Version:  plus                                  |
|   \\  /    A nd           | Web:      www.OpenFOAM.com                      |
|    \\/     M anipulation  |                                                 |
\*---------------------------------------------------------------------------*/
FoamFile
{
    version     2.0;
    format      ascii;
    class       dictionary;
    object      blockMeshDict;
}
// * * * * * * * * * * * * * * * * * * * * * * * * * * * * * * * * * * * * * //

convertToMeters 0.001;

vertices
(
    (0 0 0)
    (3 0 0)
    (3 3 0)
    (0 3 0)
    (0 0 3)
    (3 0 3)
    (3 3 3)
    (0 3 3)
);

blocks
(
    hex (0 1 2 3 4 5 6 7) (30 30 30)
    simpleGrading (1 1 1)
);

patches
(
    wall bottom
    (
        (0 1 2 3)
    )

    patch top
    (
        (4 5 6 7)
    )

    wall sides
    (
        (2 6 7 3)
        (1 5 6 2)
        (0 4 7 3)
        (0 4 5 1)
    )
);

// ************************************************************************* //
