/*--------------------------------*- C++ -*----------------------------------*\
| =========                 |                                                 |
| \\      /  F ield         | OpenFOAM: The Open Source CFD Toolbox           |
|  \\    /   O peration     | Version:  plus                                  |
|   \\  /    A nd           | Web:      www.OpenFOAM.com                      |
|    \\/     M anipulation  |                                                 |
\*---------------------------------------------------------------------------*/
FoamFile
{
    version     2.0;
    format      ascii;
    class       dictionary;
    object      blockMeshDict;
}
// * * * * * * * * * * * * * * * * * * * * * * * * * * * * * * * * * * * * * //

convertToMeters 1e-6;

channelH 114.5;//229;
channelW 229;//114.5;
channelL 1259.5;


nx 550;
ny 100;
nz 50;

vertices
(
    (0 0 0)
    ($channelL 0 0)
    ($channelL $channelW 0)
    (0 $channelW 0)
    (0 0 $channelH)
    ($channelL 0 $channelH)
    ($channelL $channelW $channelH)
    (0 $channelW $channelH)
);

blocks
(
    hex (0 1 2 3 4 5 6 7) ($nx $ny $nz)
    simpleGrading (1 1 1)
);

patches
(
    wall walls
    (
        (1 5 4 0)
        (4 5 6 7)
    )

    wall plexi
    (
        (2 6 7 3)
    )

    symmetry symm
    (
        (0 1 2 3)
    )

    patch outlet
    (
        (2 6 5 1)
    )

    patch inlet
    (
        (0 4 7 3)
    )

    empty frontAndBack
    (
    )
);

// ************************************************************************* //
